Circuit: * C:\Users\malit\OneDrive\Desktop\lesson9\voltagedivider.asc

Error on line 5 : v2 n002 0 v
	 Unknown parameter "v"
V2: Missing value, assumed 0V @ DC
Direct Newton iteration for .op point succeeded.

Date: Sat Aug 01 14:51:07 2020
Total elapsed time: 0.059 seconds.

tnom = 27
temp = 27
method = trap
totiter = 3
traniter = 0
tranpoints = 0
accept = 0
rejected = 0
matrix size = 4
fillins = 0
solver = Normal
Matrix Compiler1: 118 bytes object code size
Matrix Compiler2: 216 bytes object code size
